#!/bin/bash
#
#$ -S /bin/bash
#$ -o sgetmp
#$ -e sgetmp
##$ -l mem_free=7G
##$ -l num_proc=4
##$ -l hostname=XXXX
#$ -pe smp 8 
#$ -R yes
#$ -cwd

ls-dyna-s i=vf105prostate.dyn ncpu=$NSLOTS
